*KEYWORD
*TITLE                                                                          
ICEM CFD LS-DYNA3D                                                              
$
$$$$$$$$$$$$$$$$$$$$$$$$$$$$$$$$$$$$$$$$$$$$$$$$$$$$
$		Writing Control Cards		
$$$$$$$$$$$$$$$$$$$$$$$$$$$$$$$$$$$$$$$$$$$$$$$$$$$$
$
$
$$$$$$$$$$$$$$$$$$$$$$$$$$$$$$$$$$$$$$$$$$$$$$$$$$$$
$		Writing Databases		
$$$$$$$$$$$$$$$$$$$$$$$$$$$$$$$$$$$$$$$$$$$$$$$$$$$$
$
$
$$$$$$$$$$$$$$$$$$$$$$$$$$$$$$$$$$$$$$$$$$$$$$$$$$$$
$		Writing *DEFINE_option cards		
$$$$$$$$$$$$$$$$$$$$$$$$$$$$$$$$$$$$$$$$$$$$$$$$$$$$
$
$
$$$$$$$$$$$$$$$$$$$$$$$$$$$$$$$$$$$$$$$$$$$$$$$$$$$$
$		Writing Materials		
$$$$$$$$$$$$$$$$$$$$$$$$$$$$$$$$$$$$$$$$$$$$$$$$$$$$
$
*MAT_ELASTIC                                                                    
$      MID        RO         E        PR        DA        DB         K
         1         0         0         0         0         0         0
$
$$$$$$$$$$$$$$$$$$$$$$$$$$$$$$$$$$$$$$$$$$$$$$$$$$$$
$		Writing Sections		
$$$$$$$$$$$$$$$$$$$$$$$$$$$$$$$$$$$$$$$$$$$$$$$$$$$$
$
*SECTION_SOLID                                                                  
$       id   elformu       aet
        20         1         1
$
$$$$$$$$$$$$$$$$$$$$$$$$$$$$$$$$$$$$$$$$$$$$$$$$$$$$
$		Writing Parts		
$$$$$$$$$$$$$$$$$$$$$$$$$$$$$$$$$$$$$$$$$$$$$$$$$$$$
$
*PART                                                                           
$name
SOIL                                                                  
$       id     secid       mid     eosid      hgid      grav    adpopt      tmid
        17        20         1         0         0         0         0         0
$
$$$$$$$$$$$$$$$$$$$$$$$$$$$$$$$$$$$$$$$$$$$$$$$$$$$$
$		Writing Nodes		
$$$$$$$$$$$$$$$$$$$$$$$$$$$$$$$$$$$$$$$$$$$$$$$$$$$$
$
*NODE
$   Node               x               y               z      tc      rc
       1       -2427.351       2013.8099         1565.19       0       0
       2       -2431.101         2013.81         1565.19       0       0
       3       -2427.351       2010.0851         1565.19       0       0
       4       -2431.101       2010.0852         1565.19       0       0
       5       -2434.851         2013.81         1565.19       0       0
       6       -2434.851       2010.0852         1565.19       0       0
       7       -2438.601         2013.81         1565.19       0       0
       8       -2438.601       2010.0852         1565.19       0       0
       9       -2442.351         2013.81         1565.19       0       0
      10       -2442.351       2010.0852         1565.19       0       0
      11       -2446.101         2013.81         1565.19       0       0
      12       -2446.101       2010.0852         1565.19       0       0
      13       -2449.851         2013.81         1565.19       0       0
      14       -2449.851       2010.0852         1565.19       0       0
      15       -2453.601         2013.81         1565.19       0       0
      16       -2453.601       2010.0852         1565.19       0       0
      17       -2457.351         2013.81         1565.19       0       0
      18       -2457.351       2010.0852         1565.19       0       0
      19       -2461.101         2013.81         1565.19       0       0
      20       -2461.101       2010.0852         1565.19       0       0
$ ... 22038 like lines cut
$
$$$$$$$$$$$$$$$$$$$$$$$$$$$$$$$$$$$$$$$$$$$$$$$$$$$$
$		Writing Elements		
$$$$$$$$$$$$$$$$$$$$$$$$$$$$$$$$$$$$$$$$$$$$$$$$$$$$
$
*ELEMENT_SOLID
   23759      17
   21035   21023   21922   21918   21366   21360   22036   22032
   23758      17
   20723   20721   21882   21911   21288   21287   21996   22025
   23757      17
   21922   21023   20939   21859   22036   21360   21354   21973
   23756      17
   21884   21083   21071   21942   21998   21390   21384   22056
   23755      17
   21920   21910   21907   21944   22034   22024   22021   22058
   23754      17
   21907   21908   21931   21944   22021   22022   22045   22058
   23753      17
   21931   21921   21920   21944   22045   22035   22034   22058
   23752      17
   20891   20879   21927   21913   21330   21324   22041   22027
   23751      17
   21936   20747   20735   21943   22050   21300   21294   22057
   23750      17
   20735   20723   21911   21943   21294   21288   22025   22057
$ ... 2014 like lines cut
$
$$$$$$$$$$$$$$$$$$$$$$$$$$$$$$$$$$$$$$$$$$$$$$$$$$$$
$		Writing Sets		
$$$$$$$$$$$$$$$$$$$$$$$$$$$$$$$$$$$$$$$$$$$$$$$$$$$$
$
*SET_NODE_LIST                                                                  
$FIXD
        18
     21277     21278     21279     21280     21281     21282     21283     21284
     21285     21286     21287     21288     21289     21290     21291     21292
     21293     21294     21295     21296     21297     21298     21299     21300
     21301     21302     21303     21304     21305     21306     21307     21308
     21309     21310     21311     21312     21313     21314     21315     21316
     21317     21318     21319     21320     21321     21322     21323     21324
     21325     21326     21327     21328     21329     21330     21331     21332
     21333     21334     21335     21336     21337     21338     21339     21340
     21341     21342     21343     21344     21345     21346     21347     21348
     21349     21350     21351     21352     21353     21354     21355     21356
     21357     21358     21359     21360     21361     21362     21363     21364
     21365     21366     21367     21368     21369     21370     21371     21372
     21373     21374     21375     21376     21377     21378     21379     21380
     21381     21382     21383     21384     21385     21386     21387     21388
     21389     21390     21391     21392     21393     21394     21395     21396
     21397     21398     21399     21400     21401     21402     21403     21404
     21405     21406     21407     21408     21409     21410     21411     21412
     21413     21414     21415     21416     21417     21418     21419     21420
     21425     21426     21427     21428     21431     21432     21435     21436
$ ... 16 like lines cut
$
$$$$$$$$$$$$$$$$$$$$$$$$$$$$$$$$$$$$$$$$$$$$$$$$$$$$
$		Writing Boundary Conditions		
$$$$$$$$$$$$$$$$$$$$$$$$$$$$$$$$$$$$$$$$$$$$$$$$$$$$
$
$BOUNDARY CONDITIONS                                                            
*END
