*KEYWORD
*TITLE                                                                          
ICEM CFD LS-DYNA3D                                                              
$
$$$$$$$$$$$$$$$$$$$$$$$$$$$$$$$$$$$$$$$$$$$$$$$$$$$$
$		Writing Control Cards		
$$$$$$$$$$$$$$$$$$$$$$$$$$$$$$$$$$$$$$$$$$$$$$$$$$$$
$
$$$$$$$$$$$$$$$$$$$$$$$$$$$$$$$$$$$$$$$$$$$$$$$$$$$$
$		Writing *DEFINE_option cards		
$$$$$$$$$$$$$$$$$$$$$$$$$$$$$$$$$$$$$$$$$$$$$$$$$$$$
$
$
$$$$$$$$$$$$$$$$$$$$$$$$$$$$$$$$$$$$$$$$$$$$$$$$$$$$
$		Writing Materials		
$$$$$$$$$$$$$$$$$$$$$$$$$$$$$$$$$$$$$$$$$$$$$$$$$$$$
$
*MAT_ELASTIC                                                                    
$      MID        RO         E        PR        DA        DB         K
         1         0         0         0         0         0         0
$
$$$$$$$$$$$$$$$$$$$$$$$$$$$$$$$$$$$$$$$$$$$$$$$$$$$$
$		Writing Sections		
$$$$$$$$$$$$$$$$$$$$$$$$$$$$$$$$$$$$$$$$$$$$$$$$$$$$
$
*SECTION_SHELL                                                                  
$       id   elformu      shrf       nip     propt        qr     icomp    setype
         4         0         0         0         0         0         0         0
$      thk       thk       thk       thk      nloc     marea
         0         0         0         0         0         0
*SECTION_SHELL                                                                  
$       id   elformu      shrf       nip     propt        qr     icomp    setype
         6         0         0         0         0         0         0         0
$      thk       thk       thk       thk      nloc     marea
         0         0         0         0         0         0
*SECTION_SHELL                                                                  
$       id   elformu      shrf       nip     propt        qr     icomp    setype
         7         0         0         0         0         0         0         0
$      thk       thk       thk       thk      nloc     marea
         0         0         0         0         0         0
*SECTION_SHELL                                                                  
$       id   elformu      shrf       nip     propt        qr     icomp    setype
         8         0         0         0         0         0         0         0
$      thk       thk       thk       thk      nloc     marea
         0         0         0         0         0         0
*SECTION_SHELL                                                                  
$       id   elformu      shrf       nip     propt        qr     icomp    setype
         9         0         0         0         0         0         0         0
$      thk       thk       thk       thk      nloc     marea
         0         0         0         0         0         0
*SECTION_SHELL                                                                  
$       id   elformu      shrf       nip     propt        qr     icomp    setype
        11         0         0         0         0         0         0         0
$      thk       thk       thk       thk      nloc     marea
         0         0         0         0         0         0
$
$$$$$$$$$$$$$$$$$$$$$$$$$$$$$$$$$$$$$$$$$$$$$$$$$$$$
$		Writing Parts		
$$$$$$$$$$$$$$$$$$$$$$$$$$$$$$$$$$$$$$$$$$$$$$$$$$$$
$
*PART                                                                           
$name
SOLID11                                                               
$       id     secid       mid     eosid      hgid      grav    adpopt      tmid
         1         4         1         0         0         0         0         0
*PART                                                                           
$name
__11                                                                  
$       id     secid       mid     eosid      hgid      grav    adpopt      tmid
         3         6         1         0         0         0         0         0
*PART                                                                           
$name
__                                                                    
$       id     secid       mid     eosid      hgid      grav    adpopt      tmid
         4         7         1         0         0         0         0         0
*PART                                                                           
$name
__1                                                                   
$       id     secid       mid     eosid      hgid      grav    adpopt      tmid
         5         8         1         0         0         0         0         0
*PART                                                                           
$name
__11                                                                  
$       id     secid       mid     eosid      hgid      grav    adpopt      tmid
         6         9         1         0         0         0         0         0
*PART                                                                           
$name
SOLID                                                                 
$       id     secid       mid     eosid      hgid      grav    adpopt      tmid
         8        11         1         0         0         0         0         0
$
$$$$$$$$$$$$$$$$$$$$$$$$$$$$$$$$$$$$$$$$$$$$$$$$$$$$
$		Writing Nodes		
$$$$$$$$$$$$$$$$$$$$$$$$$$$$$$$$$$$$$$$$$$$$$$$$$$$$
$
*NODE
$   Node               x               y               z      tc      rc
       1      -717.21712            2039         1500.51       0       0
       2      -716.21192            2039         1458.02       0       0
       3      -797.35102            2039         1500.51       0       0
       4        -797.351            2039         1458.02       0       0
       5      -773.33795       2062.3777       1469.3409       0       0
       6      -559.31621            2039         1500.51       0       0
       7      -558.66756            2039         1458.02       0       0
       8      -637.43422       2094.4061       1466.9107       0       0
       9      -401.33942            2039         1500.51       0       0
      10       -401.1232            2039         1458.02       0       0
      11      -467.28128       2130.6893       1486.1047       0       0
      12      -243.36263            2039         1500.51       0       0
      13      -243.57883            2039         1458.02       0       0
      14      -347.39023       2131.5473       1421.1897       0       0
      15      -85.385843            2039         1500.51       0       0
      16      -86.034472            2039         1458.02       0       0
      17       -162.5504        2076.785       1480.4867       0       0
      18        72.51507            2039         1500.51       0       0
      19        71.50989            2039         1458.02       0       0
      20       7.3298969       2162.9091       1497.2355       0       0
$ ... 14074 like lines cut
